!- Linux Line endings 

Version,
    9.4;                      !- Version Identifier

SimulationControl,
    No,                       !- Do Zone Sizing Calculation
    Yes,                      !- Do System Sizing Calculation
    No,                       !- Do Plant Sizing Calculation
    No,                       !- Run Simulation for Sizing Periods
    Yes,                      !- Run Simulation for Weather File Run Periods
    No,                       !- Do HVAC Sizing Simulation for Sizing Periods
    1;                        !- Maximum Number of HVAC Sizing Simulation Passes

Building,
    None,                     !- Name
    0,                        !- North Axis
    Suburbs,                  !- Terrain
    0.04,                     !- Loads Convergence Tolerance Value
    0.4,                      !- Temperature Convergence Tolerance Value
    FullInteriorAndExterior,    !- Solar Distribution
    25,                       !- Maximum Number of Warmup Days
    6;                        !- Minimum Number of Warmup Days

Timestep,
    4;                        !- Number of Timesteps per Hour

Site:Location,
    DENVER_STAPLETON_CO_USA_WMO_724690,    !- Name
    39.77,                    !- Latitude
    -104.87,                  !- Longitude
    -7,                       !- Time Zone
    1611;                     !- Elevation

SizingPeriod:DesignDay,
    DENVER_STAPLETON Ann Htg 99.6% Condns DB,    !- Name
    12,                       !- Month
    21,                       !- Day of Month
    WinterDesignDay,          !- Day Type
    -20,                      !- Maximum DryBulb Temperature
    0,                        !- Daily DryBulb Temperature Range
    ,                         !- DryBulb Temperature Range Modifier Type
    ,                         !- DryBulb Temperature Range Modifier Day Schedule Name
    Wetbulb,                  !- Humidity Condition Type
    -20,                      !- Wetbulb or DewPoint at Maximum DryBulb
    ,                         !- Humidity Condition Day Schedule Name
    ,                         !- Humidity Ratio at Maximum DryBulb
    ,                         !- Enthalpy at Maximum DryBulb
    ,                         !- Daily WetBulb Temperature Range
    83411,                    !- Barometric Pressure
    2.3,                      !- Wind Speed
    180,                      !- Wind Direction
    No,                       !- Rain Indicator
    No,                       !- Snow Indicator
    No,                       !- Daylight Saving Time Indicator
    ASHRAEClearSky,           !- Solar Model Indicator
    ,                         !- Beam Solar Day Schedule Name
    ,                         !- Diffuse Solar Day Schedule Name
    ,                         !- ASHRAE Clear Sky Optical Depth for Beam Irradiance taub
    ,                         !- ASHRAE Clear Sky Optical Depth for Diffuse Irradiance taud
    0;                        !- Sky Clearness

SizingPeriod:DesignDay,
    DENVER_STAPLETON Ann Clg .4% Condns DB=>MWB,    !- Name
    7,                        !- Month
    21,                       !- Day of Month
    SummerDesignDay,          !- Day Type
    34.1,                     !- Maximum DryBulb Temperature
    15.2,                     !- Daily DryBulb Temperature Range
    ,                         !- DryBulb Temperature Range Modifier Type
    ,                         !- DryBulb Temperature Range Modifier Day Schedule Name
    Wetbulb,                  !- Humidity Condition Type
    15.8,                     !- Wetbulb or DewPoint at Maximum DryBulb
    ,                         !- Humidity Condition Day Schedule Name
    ,                         !- Humidity Ratio at Maximum DryBulb
    ,                         !- Enthalpy at Maximum DryBulb
    ,                         !- Daily WetBulb Temperature Range
    83411,                    !- Barometric Pressure
    4,                        !- Wind Speed
    120,                      !- Wind Direction
    No,                       !- Rain Indicator
    No,                       !- Snow Indicator
    No,                       !- Daylight Saving Time Indicator
    ASHRAEClearSky,           !- Solar Model Indicator
    ,                         !- Beam Solar Day Schedule Name
    ,                         !- Diffuse Solar Day Schedule Name
    ,                         !- ASHRAE Clear Sky Optical Depth for Beam Irradiance taub
    ,                         !- ASHRAE Clear Sky Optical Depth for Diffuse Irradiance taud
    1;                        !- Sky Clearness

RunPeriod,
    Run Period 1,             !- Name
    1,                        !- Begin Month
    1,                        !- Begin Day of Month
    ,                         !- Begin Year
    12,                       !- End Month
    31,                       !- End Day of Month
    ,                         !- End Year
    Tuesday,                  !- Day of Week for Start Day
    Yes,                      !- Use Weather File Holidays and Special Days
    Yes,                      !- Use Weather File Daylight Saving Period
    No,                       !- Apply Weekend Holiday Rule
    Yes,                      !- Use Weather File Rain Indicators
    Yes;                      !- Use Weather File Snow Indicators

ScheduleTypeLimits,
    Fraction,                 !- Name
    0.0,                      !- Lower Limit Value
    1.0,                      !- Upper Limit Value
    Continuous;               !- Numeric Type

ScheduleTypeLimits,
    On/Off,                   !- Name
    0.0,                      !- Lower Limit Value
    1.0,                      !- Upper Limit Value
    Discrete;                 !- Numeric Type

SCHEDULETYPELIMITS,
    Temperature,              !- Name
    ,                         !- Lower Limit Value
    ,                         !- Upper Limit Value
    ,                         !- Numeric Type
    Dimensionless;            !- Unit Type

SCHEDULETYPELIMITS,
    Any Number,               !- Name
    ,                         !- Lower Limit Value
    ,                         !- Upper Limit Value
    ,                         !- Numeric Type
    Dimensionless;            !- Unit Type

SCHEDULE:DAY:HOURLY,
    Schedule Heating Bed room,    !- Name
    Temperature,              !- Schedule Type Limits Name
    22,                       !- Hour 1
    22,                       !- Hour 2
    22,                       !- Hour 3
    22,                       !- Hour 4
    22,                       !- Hour 5
    22,                       !- Hour 6
    22,                       !- Hour 7
    22,                       !- Hour 8
    22,                       !- Hour 9
    22,                       !- Hour 10
    22,                       !- Hour 11
    22,                       !- Hour 12
    22,                       !- Hour 13
    22,                       !- Hour 14
    22,                       !- Hour 15
    22,                       !- Hour 16
    22,                       !- Hour 17
    22,                       !- Hour 18
    22,                       !- Hour 19
    22,                       !- Hour 20
    22,                       !- Hour 21
    22,                       !- Hour 22
    22,                       !- Hour 23
    22;                       !- Hour 24

SCHEDULE:DAY:HOURLY,
    Schedule Cooling Bed room,    !- Name
    Temperature,              !- Schedule Type Limits Name
    25,                       !- Hour 1
    25,                       !- Hour 2
    25,                       !- Hour 3
    25,                       !- Hour 4
    25,                       !- Hour 5
    25,                       !- Hour 6
    25,                       !- Hour 7
    25,                       !- Hour 8
    25,                       !- Hour 9
    25,                       !- Hour 10
    25,                       !- Hour 11
    25,                       !- Hour 12
    25,                       !- Hour 13
    25,                       !- Hour 14
    25,                       !- Hour 15
    25,                       !- Hour 16
    25,                       !- Hour 17
    25,                       !- Hour 18
    25,                       !- Hour 19
    25,                       !- Hour 20
    25,                       !- Hour 21
    25,                       !- Hour 22
    25,                       !- Hour 23
    25;                       !- Hour 24

SCHEDULE:DAY:HOURLY,
    Schedule Heating WC and sanitary rooms in non-residential buildings,    !- Name
    Temperature,              !- Schedule Type Limits Name
    21,                       !- Hour 1
    21,                       !- Hour 2
    21,                       !- Hour 3
    21,                       !- Hour 4
    21,                       !- Hour 5
    21,                       !- Hour 6
    21,                       !- Hour 7
    21,                       !- Hour 8
    21,                       !- Hour 9
    21,                       !- Hour 10
    21,                       !- Hour 11
    21,                       !- Hour 12
    21,                       !- Hour 13
    21,                       !- Hour 14
    21,                       !- Hour 15
    21,                       !- Hour 16
    21,                       !- Hour 17
    21,                       !- Hour 18
    21,                       !- Hour 19
    21,                       !- Hour 20
    21,                       !- Hour 21
    21,                       !- Hour 22
    21,                       !- Hour 23
    21;                       !- Hour 24

SCHEDULE:DAY:HOURLY,
    Schedule Cooling WC and sanitary rooms in non-residential buildings,    !- Name
    Temperature,              !- Schedule Type Limits Name
    25,                       !- Hour 1
    25,                       !- Hour 2
    25,                       !- Hour 3
    25,                       !- Hour 4
    25,                       !- Hour 5
    25,                       !- Hour 6
    25,                       !- Hour 7
    25,                       !- Hour 8
    25,                       !- Hour 9
    25,                       !- Hour 10
    25,                       !- Hour 11
    25,                       !- Hour 12
    25,                       !- Hour 13
    25,                       !- Hour 14
    25,                       !- Hour 15
    25,                       !- Hour 16
    25,                       !- Hour 17
    25,                       !- Hour 18
    25,                       !- Hour 19
    25,                       !- Hour 20
    25,                       !- Hour 21
    25,                       !- Hour 22
    25,                       !- Hour 23
    25;                       !- Hour 24

SCHEDULE:DAY:HOURLY,
    Schedule Heating Single office,    !- Name
    Temperature,              !- Schedule Type Limits Name
    21,                       !- Hour 1
    21,                       !- Hour 2
    21,                       !- Hour 3
    21,                       !- Hour 4
    21,                       !- Hour 5
    21,                       !- Hour 6
    21,                       !- Hour 7
    21,                       !- Hour 8
    21,                       !- Hour 9
    21,                       !- Hour 10
    21,                       !- Hour 11
    21,                       !- Hour 12
    21,                       !- Hour 13
    21,                       !- Hour 14
    21,                       !- Hour 15
    21,                       !- Hour 16
    21,                       !- Hour 17
    21,                       !- Hour 18
    21,                       !- Hour 19
    21,                       !- Hour 20
    21,                       !- Hour 21
    21,                       !- Hour 22
    21,                       !- Hour 23
    21;                       !- Hour 24

SCHEDULE:DAY:HOURLY,
    Schedule Cooling Single office,    !- Name
    Temperature,              !- Schedule Type Limits Name
    25,                       !- Hour 1
    25,                       !- Hour 2
    25,                       !- Hour 3
    25,                       !- Hour 4
    25,                       !- Hour 5
    25,                       !- Hour 6
    25,                       !- Hour 7
    25,                       !- Hour 8
    25,                       !- Hour 9
    25,                       !- Hour 10
    25,                       !- Hour 11
    25,                       !- Hour 12
    25,                       !- Hour 13
    25,                       !- Hour 14
    25,                       !- Hour 15
    25,                       !- Hour 16
    25,                       !- Hour 17
    25,                       !- Hour 18
    25,                       !- Hour 19
    25,                       !- Hour 20
    25,                       !- Hour 21
    25,                       !- Hour 22
    25,                       !- Hour 23
    25;                       !- Hour 24

SCHEDULE:DAY:HOURLY,
    Schedule Heating Living,    !- Name
    Temperature,              !- Schedule Type Limits Name
    21,                       !- Hour 1
    21,                       !- Hour 2
    21,                       !- Hour 3
    21,                       !- Hour 4
    21,                       !- Hour 5
    21,                       !- Hour 6
    21,                       !- Hour 7
    21,                       !- Hour 8
    21,                       !- Hour 9
    21,                       !- Hour 10
    21,                       !- Hour 11
    21,                       !- Hour 12
    21,                       !- Hour 13
    21,                       !- Hour 14
    21,                       !- Hour 15
    21,                       !- Hour 16
    21,                       !- Hour 17
    21,                       !- Hour 18
    21,                       !- Hour 19
    21,                       !- Hour 20
    21,                       !- Hour 21
    21,                       !- Hour 22
    21,                       !- Hour 23
    21;                       !- Hour 24

SCHEDULE:DAY:HOURLY,
    Schedule Cooling Living,    !- Name
    Temperature,              !- Schedule Type Limits Name
    25,                       !- Hour 1
    25,                       !- Hour 2
    25,                       !- Hour 3
    25,                       !- Hour 4
    25,                       !- Hour 5
    25,                       !- Hour 6
    25,                       !- Hour 7
    25,                       !- Hour 8
    25,                       !- Hour 9
    25,                       !- Hour 10
    25,                       !- Hour 11
    25,                       !- Hour 12
    25,                       !- Hour 13
    25,                       !- Hour 14
    25,                       !- Hour 15
    25,                       !- Hour 16
    25,                       !- Hour 17
    25,                       !- Hour 18
    25,                       !- Hour 19
    25,                       !- Hour 20
    25,                       !- Hour 21
    25,                       !- Hour 22
    25,                       !- Hour 23
    25;                       !- Hour 24

SCHEDULE:DAY:HOURLY,
    Schedule Heating Traffic area,    !- Name
    Temperature,              !- Schedule Type Limits Name
    21,                       !- Hour 1
    21,                       !- Hour 2
    21,                       !- Hour 3
    21,                       !- Hour 4
    21,                       !- Hour 5
    21,                       !- Hour 6
    21,                       !- Hour 7
    21,                       !- Hour 8
    21,                       !- Hour 9
    21,                       !- Hour 10
    21,                       !- Hour 11
    21,                       !- Hour 12
    21,                       !- Hour 13
    21,                       !- Hour 14
    21,                       !- Hour 15
    21,                       !- Hour 16
    21,                       !- Hour 17
    21,                       !- Hour 18
    21,                       !- Hour 19
    21,                       !- Hour 20
    21,                       !- Hour 21
    21,                       !- Hour 22
    21,                       !- Hour 23
    21;                       !- Hour 24

SCHEDULE:DAY:HOURLY,
    Schedule Cooling Traffic area,    !- Name
    Temperature,              !- Schedule Type Limits Name
    25,                       !- Hour 1
    25,                       !- Hour 2
    25,                       !- Hour 3
    25,                       !- Hour 4
    25,                       !- Hour 5
    25,                       !- Hour 6
    25,                       !- Hour 7
    25,                       !- Hour 8
    25,                       !- Hour 9
    25,                       !- Hour 10
    25,                       !- Hour 11
    25,                       !- Hour 12
    25,                       !- Hour 13
    25,                       !- Hour 14
    25,                       !- Hour 15
    25,                       !- Hour 16
    25,                       !- Hour 17
    25,                       !- Hour 18
    25,                       !- Hour 19
    25,                       !- Hour 20
    25,                       !- Hour 21
    25,                       !- Hour 22
    25,                       !- Hour 23
    25;                       !- Hour 24

SCHEDULE:DAY:HOURLY,
    Schedule People Bed room,    !- Name
    Fraction,                 !- Schedule Type Limits Name
    1,                        !- Hour 1
    1,                        !- Hour 2
    1,                        !- Hour 3
    1,                        !- Hour 4
    1,                        !- Hour 5
    1,                        !- Hour 6
    1,                        !- Hour 7
    1,                        !- Hour 8
    1,                        !- Hour 9
    1,                        !- Hour 10
    1,                        !- Hour 11
    1,                        !- Hour 12
    1,                        !- Hour 13
    1,                        !- Hour 14
    1,                        !- Hour 15
    1,                        !- Hour 16
    1,                        !- Hour 17
    1,                        !- Hour 18
    1,                        !- Hour 19
    1,                        !- Hour 20
    1,                        !- Hour 21
    1,                        !- Hour 22
    1,                        !- Hour 23
    1;                        !- Hour 24

SCHEDULE:DAY:HOURLY,
    Schedule Equipment Bed room,    !- Name
    Fraction,                 !- Schedule Type Limits Name
    0.2,                      !- Hour 1
    0.2,                      !- Hour 2
    0.2,                      !- Hour 3
    0.2,                      !- Hour 4
    0.2,                      !- Hour 5
    0.2,                      !- Hour 6
    0.2,                      !- Hour 7
    0.2,                      !- Hour 8
    0.2,                      !- Hour 9
    0.2,                      !- Hour 10
    0.2,                      !- Hour 11
    0.2,                      !- Hour 12
    0.2,                      !- Hour 13
    0.2,                      !- Hour 14
    0.2,                      !- Hour 15
    0.2,                      !- Hour 16
    0.2,                      !- Hour 17
    0.2,                      !- Hour 18
    0.2,                      !- Hour 19
    0.8,                      !- Hour 20
    0.6,                      !- Hour 21
    0.4,                      !- Hour 22
    0.2,                      !- Hour 23
    0.2;                      !- Hour 24

SCHEDULE:DAY:HOURLY,
    Schedule Lighting Bed room,    !- Name
    Fraction,                 !- Schedule Type Limits Name
    0,                        !- Hour 1
    0,                        !- Hour 2
    0,                        !- Hour 3
    0,                        !- Hour 4
    0,                        !- Hour 5
    0,                        !- Hour 6
    1,                        !- Hour 7
    1,                        !- Hour 8
    1,                        !- Hour 9
    1,                        !- Hour 10
    1,                        !- Hour 11
    1,                        !- Hour 12
    1,                        !- Hour 13
    1,                        !- Hour 14
    1,                        !- Hour 15
    1,                        !- Hour 16
    1,                        !- Hour 17
    1,                        !- Hour 18
    0,                        !- Hour 19
    0,                        !- Hour 20
    0,                        !- Hour 21
    0,                        !- Hour 22
    0,                        !- Hour 23
    0;                        !- Hour 24

SCHEDULE:DAY:HOURLY,
    Schedule People WC and sanitary rooms in non-residential buildings,    !- Name
    Fraction,                 !- Schedule Type Limits Name
    0,                        !- Hour 1
    0,                        !- Hour 2
    0,                        !- Hour 3
    0,                        !- Hour 4
    0,                        !- Hour 5
    0,                        !- Hour 6
    0,                        !- Hour 7
    0.2,                      !- Hour 8
    0.4,                      !- Hour 9
    0.6,                      !- Hour 10
    0.8,                      !- Hour 11
    0.8,                      !- Hour 12
    0.4,                      !- Hour 13
    0.6,                      !- Hour 14
    0.8,                      !- Hour 15
    0.8,                      !- Hour 16
    0.4,                      !- Hour 17
    0.2,                      !- Hour 18
    0,                        !- Hour 19
    0,                        !- Hour 20
    0,                        !- Hour 21
    0,                        !- Hour 22
    0,                        !- Hour 23
    0;                        !- Hour 24

SCHEDULE:DAY:HOURLY,
    Schedule Equipment WC and sanitary rooms in non-residential buildings,    !- Name
    Fraction,                 !- Schedule Type Limits Name
    0.1,                      !- Hour 1
    0.1,                      !- Hour 2
    0.1,                      !- Hour 3
    0.1,                      !- Hour 4
    0.1,                      !- Hour 5
    0.1,                      !- Hour 6
    0.1,                      !- Hour 7
    0.2,                      !- Hour 8
    0.4,                      !- Hour 9
    0.6,                      !- Hour 10
    0.8,                      !- Hour 11
    0.8,                      !- Hour 12
    0.4,                      !- Hour 13
    0.6,                      !- Hour 14
    0.8,                      !- Hour 15
    0.8,                      !- Hour 16
    0.4,                      !- Hour 17
    0.2,                      !- Hour 18
    0.1,                      !- Hour 19
    0.1,                      !- Hour 20
    0.1,                      !- Hour 21
    0.1,                      !- Hour 22
    0.1,                      !- Hour 23
    0.1;                      !- Hour 24

SCHEDULE:DAY:HOURLY,
    Schedule Lighting WC and sanitary rooms in non-residential buildings,    !- Name
    Fraction,                 !- Schedule Type Limits Name
    0,                        !- Hour 1
    0,                        !- Hour 2
    0,                        !- Hour 3
    0,                        !- Hour 4
    0,                        !- Hour 5
    0,                        !- Hour 6
    1,                        !- Hour 7
    1,                        !- Hour 8
    1,                        !- Hour 9
    1,                        !- Hour 10
    1,                        !- Hour 11
    1,                        !- Hour 12
    1,                        !- Hour 13
    1,                        !- Hour 14
    1,                        !- Hour 15
    1,                        !- Hour 16
    1,                        !- Hour 17
    1,                        !- Hour 18
    0,                        !- Hour 19
    0,                        !- Hour 20
    0,                        !- Hour 21
    0,                        !- Hour 22
    0,                        !- Hour 23
    0;                        !- Hour 24

SCHEDULE:DAY:HOURLY,
    Schedule People Single office,    !- Name
    Fraction,                 !- Schedule Type Limits Name
    0,                        !- Hour 1
    0,                        !- Hour 2
    0,                        !- Hour 3
    0,                        !- Hour 4
    0,                        !- Hour 5
    0,                        !- Hour 6
    0,                        !- Hour 7
    0.2,                      !- Hour 8
    0.4,                      !- Hour 9
    0.6,                      !- Hour 10
    0.8,                      !- Hour 11
    0.8,                      !- Hour 12
    0.4,                      !- Hour 13
    0.6,                      !- Hour 14
    0.8,                      !- Hour 15
    0.8,                      !- Hour 16
    0.4,                      !- Hour 17
    0.2,                      !- Hour 18
    0,                        !- Hour 19
    0,                        !- Hour 20
    0,                        !- Hour 21
    0,                        !- Hour 22
    0,                        !- Hour 23
    0;                        !- Hour 24

SCHEDULE:DAY:HOURLY,
    Schedule Equipment Single office,    !- Name
    Fraction,                 !- Schedule Type Limits Name
    0.1,                      !- Hour 1
    0.1,                      !- Hour 2
    0.1,                      !- Hour 3
    0.1,                      !- Hour 4
    0.1,                      !- Hour 5
    0.1,                      !- Hour 6
    0.1,                      !- Hour 7
    0.2,                      !- Hour 8
    0.4,                      !- Hour 9
    0.6,                      !- Hour 10
    0.8,                      !- Hour 11
    0.8,                      !- Hour 12
    0.4,                      !- Hour 13
    0.6,                      !- Hour 14
    0.8,                      !- Hour 15
    0.8,                      !- Hour 16
    0.4,                      !- Hour 17
    0.2,                      !- Hour 18
    0.1,                      !- Hour 19
    0.1,                      !- Hour 20
    0.1,                      !- Hour 21
    0.1,                      !- Hour 22
    0.1,                      !- Hour 23
    0.1;                      !- Hour 24

SCHEDULE:DAY:HOURLY,
    Schedule Lighting Single office,    !- Name
    Fraction,                 !- Schedule Type Limits Name
    0,                        !- Hour 1
    0,                        !- Hour 2
    0,                        !- Hour 3
    0,                        !- Hour 4
    0,                        !- Hour 5
    0,                        !- Hour 6
    1,                        !- Hour 7
    1,                        !- Hour 8
    1,                        !- Hour 9
    1,                        !- Hour 10
    1,                        !- Hour 11
    1,                        !- Hour 12
    1,                        !- Hour 13
    1,                        !- Hour 14
    1,                        !- Hour 15
    1,                        !- Hour 16
    1,                        !- Hour 17
    1,                        !- Hour 18
    0,                        !- Hour 19
    0,                        !- Hour 20
    0,                        !- Hour 21
    0,                        !- Hour 22
    0,                        !- Hour 23
    0;                        !- Hour 24

SCHEDULE:DAY:HOURLY,
    Schedule People Living,    !- Name
    Fraction,                 !- Schedule Type Limits Name
    1,                        !- Hour 1
    1,                        !- Hour 2
    1,                        !- Hour 3
    1,                        !- Hour 4
    1,                        !- Hour 5
    1,                        !- Hour 6
    0.8,                      !- Hour 7
    0.6,                      !- Hour 8
    0.4,                      !- Hour 9
    0.4,                      !- Hour 10
    0.4,                      !- Hour 11
    0.6,                      !- Hour 12
    0.8,                      !- Hour 13
    0.6,                      !- Hour 14
    0.4,                      !- Hour 15
    0.4,                      !- Hour 16
    0.6,                      !- Hour 17
    0.8,                      !- Hour 18
    0.8,                      !- Hour 19
    0.8,                      !- Hour 20
    0.8,                      !- Hour 21
    1,                        !- Hour 22
    1,                        !- Hour 23
    1;                        !- Hour 24

SCHEDULE:DAY:HOURLY,
    Schedule Equipment Living,    !- Name
    Fraction,                 !- Schedule Type Limits Name
    0.1,                      !- Hour 1
    0.1,                      !- Hour 2
    0.1,                      !- Hour 3
    0.1,                      !- Hour 4
    0.1,                      !- Hour 5
    0.1,                      !- Hour 6
    0.5,                      !- Hour 7
    1,                        !- Hour 8
    0.5,                      !- Hour 9
    0.5,                      !- Hour 10
    0.5,                      !- Hour 11
    1,                        !- Hour 12
    1,                        !- Hour 13
    0.5,                      !- Hour 14
    0.5,                      !- Hour 15
    0.5,                      !- Hour 16
    1,                        !- Hour 17
    1,                        !- Hour 18
    1,                        !- Hour 19
    1,                        !- Hour 20
    0.5,                      !- Hour 21
    0.5,                      !- Hour 22
    0.5,                      !- Hour 23
    0.1;                      !- Hour 24

SCHEDULE:DAY:HOURLY,
    Schedule Lighting Living,    !- Name
    Fraction,                 !- Schedule Type Limits Name
    0,                        !- Hour 1
    0,                        !- Hour 2
    0,                        !- Hour 3
    0,                        !- Hour 4
    0,                        !- Hour 5
    0,                        !- Hour 6
    1,                        !- Hour 7
    1,                        !- Hour 8
    1,                        !- Hour 9