!- Linux Line endings 

Version,
    9.3;                      !- Version Identifier

SimulationControl,
    No,                       !- Do Zone Sizing Calculation
    Yes,                      !- Do System Sizing Calculation
    No,                       !- Do Plant Sizing Calculation
    No,                       !- Run Simulation for Sizing Periods
    Yes;                      !- Run Simulation for Weather File Run Periods

Building,
    None,                     !- Name
    0,                        !- North Axis
    Suburbs,                  !- Terrain
    0.04,                     !- Loads Convergence Tolerance Value
    0.4,                      !- Temperature Convergence Tolerance Value
    FullInteriorAndExterior,    !- Solar Distribution
    25,                       !- Maximum Number of Warmup Days
    6;                        !- Minimum Number of Warmup Days

Timestep,
    4;                        !- Number of Timesteps per Hour

Site:Location,
    DENVER_STAPLETON_CO_USA_WMO_724690,    !- Name
    39.77,                    !- Latitude
    -104.87,                  !- Longitude
    -7,                       !- Time Zone
    1611;                     !- Elevation

SizingPeriod:DesignDay,
    DENVER_STAPLETON Ann Htg 99.6% Condns DB,    !- Name
    12,                       !- Month
    21,                       !- Day of Month
    WinterDesignDay,          !- Day Type
    -20,                      !- Maximum DryBulb Temperature
    0,                        !- Daily DryBulb Temperature Range
    ,                         !- DryBulb Temperature Range Modifier Type
    ,                         !- DryBulb Temperature Range Modifier Day Schedule Name
    Wetbulb,                  !- Humidity Condition Type
    -20,                      !- Wetbulb or DewPoint at Maximum DryBulb
    ,                         !- Humidity Condition Day Schedule Name
    ,                         !- Humidity Ratio at Maximum DryBulb
    ,                         !- Enthalpy at Maximum DryBulb
    ,                         !- Daily WetBulb Temperature Range
    83411,                    !- Barometric Pressure
    2.3,                      !- Wind Speed
    180,                      !- Wind Direction
    No,                       !- Rain Indicator
    No,                       !- Snow Indicator
    No,                       !- Daylight Saving Time Indicator
    ASHRAEClearSky,           !- Solar Model Indicator
    ,                         !- Beam Solar Day Schedule Name
    ,                         !- Diffuse Solar Day Schedule Name
    ,                         !- ASHRAE Clear Sky Optical Depth for Beam Irradiance taub
    ,                         !- ASHRAE Clear Sky Optical Depth for Diffuse Irradiance taud
    0;                        !- Sky Clearness

SizingPeriod:DesignDay,
    DENVER_STAPLETON Ann Clg .4% Condns DB=>MWB,    !- Name
    7,                        !- Month
    21,                       !- Day of Month
    SummerDesignDay,          !- Day Type
    34.1,                     !- Maximum DryBulb Temperature
    15.2,                     !- Daily DryBulb Temperature Range
    ,                         !- DryBulb Temperature Range Modifier Type
    ,                         !- DryBulb Temperature Range Modifier Day Schedule Name
    Wetbulb,                  !- Humidity Condition Type
    15.8,                     !- Wetbulb or DewPoint at Maximum DryBulb
    ,                         !- Humidity Condition Day Schedule Name
    ,                         !- Humidity Ratio at Maximum DryBulb
    ,                         !- Enthalpy at Maximum DryBulb
    ,                         !- Daily WetBulb Temperature Range
    83411,                    !- Barometric Pressure
    4,                        !- Wind Speed
    120,                      !- Wind Direction
    No,                       !- Rain Indicator
    No,                       !- Snow Indicator
    No,                       !- Daylight Saving Time Indicator
    ASHRAEClearSky,           !- Solar Model Indicator
    ,                         !- Beam Solar Day Schedule Name
    ,                         !- Diffuse Solar Day Schedule Name
    ,                         !- ASHRAE Clear Sky Optical Depth for Beam Irradiance taub
    ,                         !- ASHRAE Clear Sky Optical Depth for Diffuse Irradiance taud
    1;                        !- Sky Clearness

RunPeriod,
    Run Period 1,             !- Name
    1,                        !- Begin Month
    1,                        !- Begin Day of Month
    ,                         !- Begin Year
    12,                       !- End Month
    31,                       !- End Day of Month
    ,                         !- End Year
    Tuesday,                  !- Day of Week for Start Day
    Yes,                      !- Use Weather File Holidays and Special Days
    Yes,                      !- Use Weather File Daylight Saving Period
    No,                       !- Apply Weekend Holiday Rule
    Yes,                      !- Use Weather File Rain Indicators
    Yes;                      !- Use Weather File Snow Indicators

ScheduleTypeLimits,
    Fraction,                 !- Name
    0.0,                      !- Lower Limit Value
    1.0,                      !- Upper Limit Value
    Continuous;               !- Numeric Type

ScheduleTypeLimits,
    On/Off,                   !- Name
    0.0,                      !- Lower Limit Value
    1.0,                      !- Upper Limit Value
    Discrete;                 !- Numeric Type

SCHEDULETYPELIMITS,
    Temperature,              !- Name
    ,                         !- Lower Limit Value
    ,                         !- Upper Limit Value
    ,                         !- Numeric Type
    Dimensionless;            !- Unit Type

SCHEDULETYPELIMITS,
    Any Number,               !- Name
    ,                         !- Lower Limit Value
    ,                         !- Upper Limit Value
    ,                         !- Numeric Type
    Dimensionless;            !- Unit Type

SCHEDULE:DAY:HOURLY,
    Schedule Heating Single office,    !- Name
    Temperature,              !- Schedule Type Limits Name
    21,                       !- Hour 1
    21,                       !- Hour 2
    21,                       !- Hour 3
    21,                       !- Hour 4
    21,                       !- Hour 5
    21,                       !- Hour 6
    21,                       !- Hour 7
    21,                       !- Hour 8
    21,                       !- Hour 9
    21,                       !- Hour 10
    21,                       !- Hour 11
    21,                       !- Hour 12
    21,                       !- Hour 13
    21,                       !- Hour 14
    21,                       !- Hour 15
    21,                       !- Hour 16
    21,                       !- Hour 17
    21,                       !- Hour 18
    21,                       !- Hour 19
    21,                       !- Hour 20
    21,                       !- Hour 21
    21,                       !- Hour 22
    21,                       !- Hour 23
    21;                       !- Hour 24

SCHEDULE:DAY:HOURLY,
    Schedule Cooling Single office,    !- Name
    Temperature,              !- Schedule Type Limits Name
    25,                       !- Hour 1
    25,                       !- Hour 2
    25,                       !- Hour 3
    25,                       !- Hour 4
    25,                       !- Hour 5
    25,                       !- Hour 6
    25,                       !- Hour 7
    25,                       !- Hour 8
    25,                       !- Hour 9
    25,                       !- Hour 10
    25,                       !- Hour 11
    25,                       !- Hour 12
    25,                       !- Hour 13
    25,                       !- Hour 14
    25,                       !- Hour 15
    25,                       !- Hour 16
    25,                       !- Hour 17
    25,                       !- Hour 18
    25,                       !- Hour 19
    25,                       !- Hour 20
    25,                       !- Hour 21
    25,                       !- Hour 22
    25,                       !- Hour 23
    25;                       !- Hour 24

SCHEDULE:DAY:HOURLY,
    Schedule People Single office,    !- Name
    Fraction,                 !- Schedule Type Limits Name
    0,                        !- Hour 1
    0,                        !- Hour 2
    0,                        !- Hour 3
    0,                        !- Hour 4
    0,                        !- Hour 5
    0,                        !- Hour 6
    0,                        !- Hour 7
    0.2,                      !- Hour 8
    0.4,                      !- Hour 9
    0.6,                      !- Hour 10
    0.8,                      !- Hour 11
    0.8,                      !- Hour 12
    0.4,                      !- Hour 13
    0.6,                      !- Hour 14
    0.8,                      !- Hour 15
    0.8,                      !- Hour 16
    0.4,                      !- Hour 17
    0.2,                      !- Hour 18
    0,                        !- Hour 19
    0,                        !- Hour 20
    0,                        !- Hour 21
    0,                        !- Hour 22
    0,                        !- Hour 23
    0;                        !- Hour 24

SCHEDULE:DAY:HOURLY,
    Schedule Equipment Single office,    !- Name
    Fraction,                 !- Schedule Type Limits Name
    0.1,                      !- Hour 1
    0.1,                      !- Hour 2
    0.1,                      !- Hour 3
    0.1,                      !- Hour 4
    0.1,                      !- Hour 5
    0.1,                      !- Hour 6
    0.1,                      !- Hour 7
    0.2,                      !- Hour 8
    0.4,                      !- Hour 9
    0.6,                      !- Hour 10
    0.8,                      !- Hour 11
    0.8,                      !- Hour 12
    0.4,                      !- Hour 13
    0.6,                      !- Hour 14
    0.8,                      !- Hour 15
    0.8,                      !- Hour 16
    0.4,                      !- Hour 17
    0.2,                      !- Hour 18
    0.1,                      !- Hour 19
    0.1,                      !- Hour 20
    0.1,                      !- Hour 21
    0.1,                      !- Hour 22
    0.1,                      !- Hour 23
    0.1;                      !- Hour 24

SCHEDULE:DAY:HOURLY,
    Schedule Lighting Single office,    !- Name
    Fraction,                 !- Schedule Type Limits Name
    0,                        !- Hour 1
    0,                        !- Hour 2
    0,                        !- Hour 3
    0,                        !- Hour 4
    0,                        !- Hour 5
    0,                        !- Hour 6
    1,                        !- Hour 7
    1,                        !- Hour 8
    1,                        !- Hour 9
    1,                        !- Hour 10
    1,                        !- Hour 11
    1,                        !- Hour 12
    1,                        !- Hour 13
    1,                        !- Hour 14
    1,                        !- Hour 15
    1,                        !- Hour 16
    1,                        !- Hour 17
    1,                        !- Hour 18
    0,                        !- Hour 19
    0,                        !- Hour 20
    0,                        !- Hour 21
    0,                        !- Hour 22
    0,                        !- Hour 23
    0;                        !- Hour 24

SCHEDULE:WEEK:COMPACT,
    Schedule Heating Single office,    !- Name
    AllDays,                  !- DayType List 1
    Schedule Heating Single office;    !- ScheduleDay Name 1

SCHEDULE:WEEK:COMPACT,
    Schedule Cooling Single office,    !- Name
    AllDays,                  !- DayType List 1
    Schedule Cooling Single office;    !- ScheduleDay Name 1

SCHEDULE:WEEK:COMPACT,
    Schedule People Single office,    !- Name
    AllDays,                  !- DayType List 1
    Schedule People Single office;    !- ScheduleDay Name 1

SCHEDULE:WEEK:COMPACT,
    Schedule Equipment Single office,    !- Name
    AllDays,                  !- DayType List 1
    Schedule Equipment Single office;    !- ScheduleDay Name 1

SCHEDULE:WEEK:COMPACT,
    Schedule Lighting Single office,    !- Name
    AllDays,                  !- DayType List 1
    Schedule Lighting Single office;    !- ScheduleDay Name 1

SCHEDULE:YEAR,
    Schedule Heating Single office,    !- Name
    Temperature,              !- Schedule Type Limits Name
    Schedule Heating Single office,    !- ScheduleWeek Name 1
    1,                        !- Start Month 1
    1,                        !- Start Day 1
    12,                       !- End Month 1
    31;                       !- End Day 1

SCHEDULE:YEAR,
    Schedule Cooling Single office,    !- Name
    Temperature,              !- Schedule Type Limits Name
    Schedule Cooling Single office,    !- ScheduleWeek Name 1
    1,                        !- Start Month 1
    1,                        !- Start Day 1
    12,                       !- End Month 1
    31;                       !- End Day 1

SCHEDULE:YEAR,
    Schedule People Single office,    !- Name
    Fraction,                 !- Schedule Type Limits Name
    Schedule People Single office,    !- ScheduleWeek Name 1
    1,                        !- Start Month 1
    1,                        !- Start Day 1
    12,                       !- End Month 1
    31;                       !- End Day 1

SCHEDULE:YEAR,
    Schedule Equipment Single office,    !- Name
    Fraction,                 !- Schedule Type Limits Name
    Schedule Equipment Single office,    !- ScheduleWeek Name 1
    1,                        !- Start Month 1
    1,                        !- Start Day 1
    12,                       !- End Month 1
    31;                       !- End Day 1

SCHEDULE:YEAR,
    Schedule Lighting Single office,    !- Name
    Fraction,                 !- Schedule Type Limits Name
    Schedule Lighting Single office,    !- ScheduleWeek Name 1
    1,                        !- Start Month 1
    1,                        !- Start Day 1
    12,                       !- End Month 1
    31;                       !- End Day 1

Schedule:Compact,
    Constant,                 !- Name
    on/off,                   !- Schedule Type Limits Name
    Through: 12/31,           !- Field 1
    For: AllDays,             !- Field 2
    Until: 24:00,             !- Field 3
    1.0;                      !- Field 4

Schedule:Compact,
    Continuous,               !- Name
    on/off,                   !- Schedule Type Limits Name
    Through: 12/31,           !- Field 1
    For: AllDays,             !- Field 2
    Until: 24:00,             !- Field 3
    1.0;                      !- Field 4

Schedule:Compact,
    Daytime Ventilation,      !- Name
    Fraction,                 !- Schedule Type Limits Name
    Through: 12/31,           !- Field 1
    For: Weekdays SummerDesignDay,    !- Field 2
    Until: 08:00,             !- Field 3
    0.0,                      !- Field 4
    Until: 18:00,             !- Field 5
    1.0,                      !- Field 6
    Until: 24:00,             !- Field 7
    0.0,                      !- Field 8
    For: Weekends WinterDesignDay,    !- Field 9
    Until: 10:00,             !- Field 10
    0.0,                      !- Field 11
    Until: 16:00,             !- Field 12
    1.0,                      !- Field 13
    Until: 24:00,             !- Field 14
    0.0,                      !- Field 15
    For: Holidays AllOtherDays,    !- Field 16
    Until: 24:00,             !- Field 17
    0.0;                      !- Field 18

Schedule:Compact,
    Intermittent,             !- Name
    Fraction,                 !- Schedule Type Limits Name
    Through: 12/31,           !- Field 1
    For: AllDays,             !- Field 2
    Until: 08:00,             !- Field 3
    0.0,                      !- Field 4
    Until: 18:00,             !- Field 5
    1.0,                      !- Field 6
    Until: 24:00,             !- Field 7
    0.0;                      !- Field 8

Schedule:Compact,
    Maximum Outside Air,      !- Name
    Fraction,                 !- Schedule Type Limits Name
    Through: 12/31,           !- Field 1
    For: AllDays,             !- Field 2
    Until: 24:00,             !- Field 3
    1.0;                      !- Field 4

Schedule:Compact,
    Minimum Outside Air,      !- Name
    Fraction,                 !- Schedule Type Limits Name
    Through: 12/31,           !- Field 1
    For: Weekdays SummerDesignDay,    !- Field 2
    Until: 24:00,             !- Field 3
    0.15,                     !- Field 4
    For: Weekends WinterDesignDay Holidays AllOtherDays,    !- Field 5
    Until: 24:00,             !- Field 6
    0.05;                     !- Field 7

Schedule:Compact,
    Off,                      !- Name
    on/off,                   !- Schedule Type Limits Name
    Through: 12/31,           !- Field 1
    For: AllDays,             !- Field 2
    Until: 24:00,             !- Field 3
    0.0;                      !- Field 4

Schedule:Compact,
    On,                       !- Name
    Fraction,                 !- Schedule Type Limits Name
    Through: 12/31,           !- Field 1
    For: AllDays,             !- Field 2
    Until: 24:00,             !- Field 3
    1.0;                      !- Field 4

Schedule:Compact,
    VAV Minimum Air Fraction,    !- Name
    Fraction,                 !- Schedule Type Limits Name
    Through: 12/31,           !- Field 1
    For: AllDays,             !- Field 2
    Until: 24:00,             !- Field 3
    0.1;                      !- Field 4

Schedule:Compact,
    Assembly HVAC,            !- Name
    on/off,                   !- Schedule Type Limits Name
    Through: 12/31,           !- Field 1
    For: Weekdays SummerDesignDay,    !- Field 2
    Until: 05:00,             !- Field 3
    0.0,                      !- Field 4
    Until: 23:00,             !- Field 5
    1.0,                      !- Field 6
    Until: 24:00,             !- Field 7
    0.0,                      !- Field 8
    For: Saturday WinterDesignDay,    !- Field 9
    Until: 06:00,             !- Field 10
    0.0,                      !- Field 11
    Until: 23:00,             !- Field 12
    1.0,                      !- Field 13
    Until: 24:00,             !- Field 14
    0.0,                      !- Field 15
    For: Sunday Holidays AllOtherDays,    !- Field 16
    Until: 06:00,             !- Field 17
    0.0,                      !- Field 18
    Until: 23:00,             !- Field 19
    1.0,                      !- Field 20
    Until: 24:00,             !- Field 21
    0.0;                      !- Field 22

Schedule:Compact,
    Assembly Lighting,        !- Name
    Fraction,                 !- Schedule Type Limits Name
    Through: 12/31,           !- Field 1
    For: Weekdays SummerDesignDay,    !- Field 2
    Until: 08:00,             !- Field 3
    0.0,                      !- Field 4
    Until: 11:00,             !- Field 5
    0.4,                      !- Field 6
    Until: 22:00,             !- Field 7
    0.75,                     !- Field 8
    Until: 23:00,             !- Field 9
    0.25,                     !- Field 10
    Until: 24:00,             !- Field 11
    0.0,                      !- Field 12
    For: Saturday WinterDesignDay,    !- Field 13
    Until: 07:00,             !- Field 14
    0.0,                      !- Field 15
    Until: 09:00,             !- Field 16
    0.3,                      !- Field 17
    Until: 23:00,             !- Field 18
    0.5,                      !- Field 19
    Until: 24:00,             !- Field 20
    0.0,                      !- Field 21
    For: Sunday Holidays AllOtherDays,    !- Field 22
    Until: 07:00,             !- Field 23
    0.0,                      !- Field 24
    Until: 12:00,             !- Field 25
    0.3,                      !- Field 26
    Until: 22:00,             !- Field 27
    0.65,                     !- Field 28
    Until: 24:00,             !- Field 29
    0.0;                      !- Field 30

Schedule:Compact,
    Assembly Occupancy,       !- Name
    Fraction,                 !- Schedule Type Limits Name
    Through: 12/31,           !- Field 1
    For: Weekdays SummerDesignDay,    !- Field 2
    Until: 08:00,             !- Field 3
    0.0,                      !- Field 4
    Until: 12:00,             !- Field 5
    0.2,                      !- Field 6
    Until: 18:00,             !- Field 7
    0.8,                      !- Field 8
    Until: 22:00,             !- Field 9
    0.2,                      !- Field 10
    Until: 23:00,             !- Field 11
    0.1,                      !- Field 12
    Until: 24:00,             !- Field 13
    0.0,                      !- Field 14
    For: Saturday WinterDesignDay,    !- Field 15
    Until: 08:00,             !- Field 16
    0.0,                      !- Field 17
    Until: 12:00,             !- Field 18
    0.2,                      !- Field 19
    Until: 21:00,             !- Field 20
    0.6,                      !- Field 21
    Until: 22:00,             !- Field 22
    0.8,                      !- Field 23
    Until: 23:00,             !- Field 24
    0.1,                      !- Field 25
    Until: 24:00,             !- Field 26
    0.0,                      !- Field 27
    For: Sunday Holidays AllOtherDays,    !- Field 28
    Until: 08:00,             !- Field 29
    0.0,                      !- Field 30
    Until: 13:00,             !- Field 31
    0.1,                      !- Field 32
    Until: 22:00,             !- Field 33
    0.7,                      !- Field 34
    Until: 23:00,             !- Field 35
    0.2,                      !- Field 36
    Until: 24:00,             !- Field 37
    0.0;                      !- Field 38

Schedule:Compact,
    Assembly SWH,             !- Name
    Fraction,                 !- Schedule Type Limits Name
    Through: 12/31,           !- Field 1
    For: Weekdays SummerDesignDay,    !- Field 2
    Until: 09:00,             !- Field 3
    0.0,                      !- Field 4
    Until: 11:00,             !- Field 5
    0.05,                     !- Field 6
    Until: 12:00,             !- Field 7
    0.35,                     !- Field 8
    Until: 17:00,             !- Field 9
    0.05,                     !- Field 10
    Until: 24:00,             !- Field 11
    0.0,                      !- Field 12
    For: Saturday WinterDesignDay,    !- Field 13
    Until: 09:00,             !- Field 14
    0.0,                      !- Field 15
    Until: 11:00,             !- Field 16
    0.05,                     !- Field 17
    Until: 12:00,             !- Field 18
    0.2,                      !- Field 19
    Until: 19:00,             !- Field 20
    0.0,                      !- Field 21
    Until: 20:00,             !- Field 22
    0.65,                     !- Field 23
    Until: 21:00,             !- Field 24
    0.3,                      !- Field 25
    Until: 24:00,             !- Field 26
    0.0,                      !- Field 27
    For: Sunday Holidays AllOtherDays,    !- Field 28
    Until: 09:00,             !- Field 29
    0.0,                      !- Field 30
    Until: 11:00,             !- Field 31
    0.05,                     !- Field 32
    Until: 12:00,             !- Field 33
    0.1,                      !- Field 34
    Until: 20:00,             !- Field 35
    0.0,                      !- Field 36
    Until: 21:00,             !- Field 37
    0.65,                     !- Field 38
    Until: 22:00,             !- Field 39
    0.3,                      !- Field 40
    Until: 24:00,             !- Field 41
    0.0;                      !- Field 42

Schedule:Compact,
    Health HVAC,              !- Name
    on/off,                   !- Schedule Type Limits Name
    Through: 12/31,           !- Field 1
    For: AllDays,             !- Field 2
    Until: 24:00,             !- Field 3
    1.0;                      !- Field 4

Schedule:Compact,
    Health Lighting,          !- Name
    Fraction,                 !- Schedule Type Limits Name
    Through: 12/31,           !- Field 1
    For: Weekdays SummerDesignDay,    !- Field 2
    Until: 07:00,             !- Field 3
    0.1,                      !- Field 4
    Until: 08:00,             !- Field 5
    0.5,                      !- Field 6
    Until: 16:00,             !- Field 7
    0.9,                      !- Field 8
    Until: 23:00,             !- Field 9
    0.3,                      !- Field 10
    Until: 24:00,             !- Field 11
    0.1,                      !- Field 12
    For: Saturday WinterDesignDay,    !- Field 13
    Until: 07:00,             !- Field 14
    0.1,                      !- Field 15
    Until: 08:00,             !- Field 16
    0.2,                      !- Field 17
    Until: 18:00,             !- Field 18
    0.4,                      !- Field 19
    Until: 24:00,             !- Field 20
    0.1,                      !- Field 21
    For: Sunday Holidays AllOtherDays,    !- Field 22
    Until: 08:00,             !- Field 23
    0.05,                     !- Field 24
    Until: 16:00,             !- Field 25
    0.1,                      !- Field 26
    Until: 24:00,             !- Field 27
    0.05;                     !- Field 28

Schedule:Compact,
    Health Occupancy,         !- Name
    Fraction,                 !- Schedule Type Limits Name
    Through: 12/31,           !- Field 1
    For: Weekdays SummerDesignDay,    !- Field 2
    Until: 07:00,             !- Field 3
    0.0,                      !- Field 4
    Until: 08:00,             !- Field 5
    0.1,                      !- Field 6
    Until: 09:00,             !- Field 7
    0.5,                      !- Field 8
    Until: 17:00,             !- Field 9
    0.8,                      !- Field 10
    Until: 18:00,             !- Field 11
    0.5,                      !- Field 12
    Until: 20:00,             !- Field 13
    0.3,                      !- Field 14
    Until: 22:00,             !- Field 15
    0.2,                      !- Field 16
    Until: 24:00,             !- Field 17
    0.0,                      !- Field 18
    For: Saturday WinterDesignDay,    !- Field 19
    Until: 07:00,             !- Field 20
    0.0,                      !- Field 21
    Until: 08:00,             !- Field 22
    0.1,                      !- Field 23
    Until: 09:00,             !- Field 24
    0.3,                      !- Field 25
    Until: 17:00,             !- Field 26
    0.4,                      !- Field 27
    Until: 19:00,             !- Field 28
    0.1,                      !- Field 29
    Until: 24:00,             !- Field 30
    0.0,                      !- Field 31
    For: Sunday Holidays AllOtherDays,    !- Field 32
    Until: 08:00,             !- Field 33
    0.0,                      !- Field 34
    Until: 16:00,             !- Field 35
    0.05,                     !- Field 36
    Until: 24:00,             !- Field 37
    0.0;                      !- Field 38

Schedule:Compact,
    Health SWH,               !- Name
    Fraction,                 !- Schedule Type Limits Name
    Through: 12/31,           !- Field 1
    For: Weekdays SummerDesignDay,    !- Field 2
    Until: 07:00,             !- Field 3
    0.1,                      !- Field 4
    Until: 08:00,             !- Field 5
    0.17,                     !- Field 6
    Until: 09:00,             !- Field 7
    0.58,                     !- Field 8
    Until: 10:00,             !- Field 9
    0.66,                     !- Field 10
    Until: 11:00,             !- Field 11
    0.78,                     !- Field 12
    Until: 12:00,             !- Field 13
    0.82,                     !- Field 14
    Until: 13:00,             !- Field 15
    0.71,                     !- Field 16
    Until: 14:00,             !- Field 17
    0.82,                     !- Field 18
    Until: 15:00,             !- Field 19
    0.78,                     !- Field 20
    Until: 16:00,             !- Field 21
    0.74,                     !- Field 22
    Until: 17:00,             !- Field 23
    0.63,                     !- Field 24
    Until: 18:00,             !- Field 25
    0.41,                     !- Field 26
    Until: 21:00,             !- Field 27
    0.18,                     !- Field 28
    Until: 22:00,             !- Field 29
    0.1,                      !- Field 30
    Until: 24:00,             !- Field 31
    0.01,                     !- Field 32
    For: Saturday WinterDesignDay,    !- Field 33
    Until: 08:00,             !- Field 34
    0.1,                      !- Field 35
    Until: 09:00,             !- Field 36
    0.2,                      !- Field 37
    Until: 10:00,             !- Field 38
    0.28,                     !- Field 39
    Until: 12:00,             !- Field 40
    0.3,                      !- Field 41
    Until: 14:00,             !- Field 42
    0.24,                     !- Field 43
    Until: 17:00,             !- Field 44
    0.23,                     !- Field 45
    Until: 18:00,             !- Field 46
    0.1,                      !- Field 47
    Until: 24:00,             !- Field 48
    0.01,                     !- Field 49
    For: Sunday Holidays AllOtherDays,    !- Field 50
    Until: 24:00,             !- Field 51
    0.01;                     !- Field 52

Schedule:Compact,
    Hotel HVAC,               !- Name
    on/off,                   !- Schedule Type Limits Name
    Through: 12/31,           !- Field 1
    For: AllDays,             !- Field 2
    Until: 24:00,             !- Field 3
    1.0;                      !- Field 4

Schedule:Compact,
    Hotel Lighting,           !- Name
    Fraction,                 !- Schedule Type Limits Name
    Through: 12/31,           !- Field 1
    For: Weekdays SummerDesignDay,    !- Field 2
    Until: 01:00,             !- Field 3